$DATA1 SOURCE='HSPICE' VERSION='I-2013.12-SP1 64-BIT'
.TITLE 'fo4'
 tpdf             tpdr             tpd              tr                
 tf               avgpower         peakpower        temper            
 alter#            
  1.283e-11        1.155e-11        1.219e-11        1.350e-11        
  1.615e-11        1.088e-04        6.774e-02        2.500e+01        
 1                 
