$DATA1 SOURCE='HSPICE' VERSION='I-2013.12-SP1 64-BIT'
.TITLE 'dff_timing'
 tclk_qf          tclk_qr          tclk-q           avgpower          
 peakpower        temper           alter#            
  4.915e-11        6.417e-11        5.666e-11        9.193e-06        
  2.520e-04        2.500e+01       1                 
