 ****** HSPICE -- I-2013.12-SP1 64-BIT (Feb 25 2014) RHEL64 ******              
  Copyright (C) 2014 Synopsys, Inc. All Rights Reserved.                        
  Unpublished-rights reserved under US copyright laws.
  This program is protected by law and is subject to the
  terms and conditions of the license agreement from Synopsys.
  Use of this program is your acceptance to be bound by the
  license agreement. HSPICE is the trademark of Synopsys, Inc.
  Input File: stimulus_Bisec.sp                                                 
  Command line options: -i stimulus_Bisec.sp -o output_Bisec/ -d
 lic:  
 lic: FLEXlm: v10.9.8 
 lic: USER:   2015104027           HOSTNAME: vlsi-dist.khu.ac.kr 
 lic: HOSTID: 382c4ac7d475         PID:      13336 
 lic: Using FLEXlm license file: 
 lic: 27020@163.180.118.198 
 lic: Checkout 1 hspice 
 lic: License/Maintenance for hspice will expire on 30-jun-2021/2020.03 
 lic: 1(in_use)/5(total) FLOATING license(s) on SERVER 27020@163.180.118.198 
 lic:   
 Init: read install configuration file: /Tools/Synopsys/Hspice/hspice/meta.cfg
  **warning** (D#2dFF.sp:10) Global net name, "gnd", in subckt pin list. The pin will be connected to the local net. Recommend to not use global net names in subckt pin lists.
 **warning** multiple output options specified, using post    
  **info** (stimulus_Bisec.sp:38) DC voltage reset to initial transient source value              in source        0:vin0                new dc=  0.1100D+01
 **warning**(nmos_vtl:m26)Warning:  Acde = 0.276941 may be too small in BSIM4 model with w=1e-07 l=5e-08.
  
      
 **info** set option symb=1 internally to help for convergence.
 *****************************************************************
 ******  option summary
 ******
 runlvl  = 3         bypass  = 2         
  Opening plot unit= 15
 file=output_Bisec/stimulus_Bisec.pa0

          optimization completed, the condition
          relin =  1.0000E-03 is satisfied

          optimization completed, the condition
          relout =  1.0000E-03 isn't satisfied

          the maximum number of iterations (    20)was
          exceeded. however, results might be accurate. 

 **** optimized parameters opt1            

 .param delaytime =  1.211e-09      

 **info** dc convergence successful at Newton-Raphson method 
 ****** HSPICE -- I-2013.12-SP1 64-BIT (Feb 25 2014) RHEL64 ******              
 ******  
 dff_case11

  ******  operating point information tnom=  25.000 temp=  25.000 *****
 ***** operating point status is voltage   simulation time is   0.000e+00
    node    =voltage      node    =voltage      node    =voltage

 +0:ck      = 0.000e+00 0:d       = 1.100e+00 0:q       = 5.452e-01
 +0:vdd     = 1.100e+00 1:clk     = 1.596e-05 1:clk_b   = 1.100e+00
 +1:net18   = 6.234e-05 1:net32   = 1.100e+00 1:net39   = 5.246e-01
 +1:net45   = 5.092e-01 1:net75   = 7.292e-01 1:net76   = 4.149e-01
 +1:net77   = 1.068e+00 1:net78   = 5.681e-06 1:net79   = 2.240e-01
 +1:net80   = 3.300e-05 1:net81   = 2.240e-01 1:net82   = 3.300e-05

 ******  
 dff_case11

  ******  transient analysis tnom=  25.000 temp=  25.000 *****
 vout= 1.5882e-05    at= 6.1776e-09
             from= 3.4000e-09    to= 6.2000e-09
 setup11= 1.8866e-10  targ= 5.7500e-09   trig= 5.5613e-09
 avgpower= 4.7486e-06  from= 3.4000e-09     to= 1.1000e-08
 peakpower= 2.6281e-04    at= 5.8020e-09
             from= 3.4000e-09    to= 1.1000e-08

          ***** job concluded
 ****** HSPICE -- I-2013.12-SP1 64-BIT (Feb 25 2014) RHEL64 ******              
 ******  
 dff_case11

  ******  job statistics summary tnom=  25.000 temp=  25.000 *****
  
  
 ******  Machine Information  ******
 CPU:
 model name	: Intel(R) Xeon(R) CPU E5-2690 v2 @ 3.00GHz
 cpu MHz	: 3011.325
  
 OS:
 Linux version 2.6.32-696.1.1.el6.x86_64 (mockbuild@c1bm.rdu2.centos.org) (gcc version 4.4.7 20120313 (Red Hat 4.4.7-18) (GCC) ) #1 SMP Tue Apr 11 17:13:24 UTC 2017


  ******  HSPICE Threads Information  ******

  Command Line Threads Count :     1
  Available CPU Count        :    40
  Actual Threads Count       :     1


  ******  Circuit Statistics  ******
  # nodes       =     123 # elements   =      29
  # resistors   =       0 # capacitors =       0 # inductors   =       0
  # mutual_inds =       0 # vccs       =       0 # vcvs        =       0
  # cccs        =       0 # ccvs       =       0 # volt_srcs   =       3
  # curr_srcs   =       0 # diodes     =       0 # bjts        =       0
  # jfets       =       0 # mosfets    =      26 # U elements  =       0
  # T elements  =       0 # W elements =       0 # B elements  =       0
  # S elements  =       0 # P elements =       0 # va device   =       0
  # vector_srcs =       0 # N elements =       0


  ******  Runtime Statistics (seconds)  ******

  analysis           time    # points   tot. iter  conv.iter
  op point           0.00           1          33
  transient          1.01           4       10679        3534 rev=       731
  readin             0.01
  errchk             0.00
  setup              0.00
  output             0.00


           peak memory used        173.79 megabytes
           total cpu time            1.04 seconds
           total elapsed time        1.80 seconds
           job started at     21:36:32 10/20/2020
           job ended   at     21:36:34 10/20/2020


  **warning** (stimulus_Bisec.sp:79) Parameter first_volt="0" overrides previously declared parameter first_volt (stimulus_Bisec.sp:24).
  **warning** (D#2dFF.sp:10) Global net name, "gnd", in subckt pin list. The pin will be connected to the local net. Recommend to not use global net names in subckt pin lists.
 **warning** multiple output options specified, using post    
  **info** (stimulus_Bisec.sp:38) DC voltage reset to initial transient source value              in source        0:vin0                new dc=  0.0000D+00
 **warning**(nmos_vtl:m26)Warning:  Acde = 0.276941 may be too small in BSIM4 model with w=1e-07 l=5e-08.
 **warning**(nmos_vtl:m26)Warning: (B1 + Weff) may be too small in BSIM4 model with w=1e-07 l=5e-08.
 **warning**(nmos_vtl:m24)Warning:  Acde = 0.276941 may be too small in BSIM4 model with w=1.4e-07 l=5.5e-08.
 **warning**(nmos_vtl:m22)Warning:  Acde = 0.276941 may be too small in BSIM4 model with w=1.6e-07 l=5e-08.
 **warning**(nmos_vtl:m18)Warning:  Acde = 0.276941 may be too small in BSIM4 model with w=1e-07 l=5.5e-08.
 **warning**(nmos_vtl:m18)Warning: (B1 + Weff) may be too small in BSIM4 model with w=1e-07 l=5.5e-08.
 **warning**(nmos_vtl:m14)Warning:  Acde = 0.276941 may be too small in BSIM4 model with w=2e-07 l=5.5e-08.
 **warning**(nmos_vtl:m6)Warning:  Acde = 0.276941 may be too small in BSIM4 model with w=1.15e-07 l=5e-08.
 **warning**(pmos_vtl:m7)Warning:  Acde = 0.300892 may be too small in BSIM4 model with w=1.5e-07 l=5e-08.
 **warning**(pmos_vtl:m25)Warning:  Acde = 0.300892 may be too small in BSIM4 model with w=1.5e-07 l=5.5e-08.
 **warning**(pmos_vtl:m23)Warning:  Acde = 0.300892 may be too small in BSIM4 model with w=2.1e-07 l=5e-08.
 **warning**(pmos_vtl:m21)Warning:  Acde = 0.300892 may be too small in BSIM4 model with w=2.5e-07 l=5.5e-08.
 **warning**(pmos_vtl:m15)Warning:  Acde = 0.300892 may be too small in BSIM4 model with w=1e-07 l=5e-08.
 **warning**(pmos_vtl:m15)Warning: (B1 + Weff) may be too small in BSIM4 model with w=1e-07 l=5e-08.
 **warning**(pmos_vtl:m11)Warning:  Acde = 0.300892 may be too small in BSIM4 model with w=3.1e-07 l=5e-08.
 **warning**(pmos_vtl:m12)Warning:  Acde = 0.300892 may be too small in BSIM4 model with w=3.1e-07 l=5.5e-08.
 **warning**(pmos_vtl:m5)Warning:  Acde = 0.300892 may be too small in BSIM4 model with w=1.8e-07 l=5.5e-08.
  
      
 **info** set option symb=1 internally to help for convergence.
 *****************************************************************
 ******  option summary
 ******
 runlvl  = 3         bypass  = 2         
  Opening plot unit= 15
 file=output_Bisec/stimulus_Bisec.pa1

 **error** endpoints have same sign in bisection.
 For delaytime       =   0.0000    , vout            = -2.26559E-03.
 For delaytime       =  5.00000E-09, vout            = -2.79205E-04.
 Both of these are on the same side of the goal value vout            =  1.00000E-06.

 delaytime =    failed       
 vout =    failed       

          ***** job aborted
 ****** HSPICE -- I-2013.12-SP1 64-BIT (Feb 25 2014) RHEL64 ******              
 ******  
 dff_case00

  ******  job statistics summary tnom=  25.000 temp=  25.000 *****
  
  
 ******  Machine Information  ******
 CPU:
 model name	: Intel(R) Xeon(R) CPU E5-2690 v2 @ 3.00GHz
 cpu MHz	: 3011.325
  
 OS:
 Linux version 2.6.32-696.1.1.el6.x86_64 (mockbuild@c1bm.rdu2.centos.org) (gcc version 4.4.7 20120313 (Red Hat 4.4.7-18) (GCC) ) #1 SMP Tue Apr 11 17:13:24 UTC 2017


  ******  HSPICE Threads Information  ******

  Command Line Threads Count :     1
  Available CPU Count        :    40
  Actual Threads Count       :     1


  ******  Circuit Statistics  ******
  # nodes       =     123 # elements   =      29
  # resistors   =       0 # capacitors =       0 # inductors   =       0
  # mutual_inds =       0 # vccs       =       0 # vcvs        =       0
  # cccs        =       0 # ccvs       =       0 # volt_srcs   =       3
  # curr_srcs   =       0 # diodes     =       0 # bjts        =       0
  # jfets       =       0 # mosfets    =      26 # U elements  =       0
  # T elements  =       0 # W elements =       0 # B elements  =       0
  # S elements  =       0 # P elements =       0 # va device   =       0
  # vector_srcs =       0 # N elements =       0


  ******  Runtime Statistics (seconds)  ******

  analysis           time    # points   tot. iter  conv.iter
  op point           0.00           1          34
  transient          0.11           4        1152         374 rev=        89
  readin             0.00
  errchk             0.00
  setup              0.00
  output             0.00


           peak memory used        174.77 megabytes
           total cpu time            0.12 seconds
           total elapsed time        0.12 seconds
           job started at     21:36:32 10/20/2020
           job ended   at     21:36:34 10/20/2020


 lic: Release hspice token(s) 
 lic: total license checkout elapse time:        0.76(s)
